REMARK  6 active torsions:
REMARK  status: ('A' for Active; 'I' for Inactive)
REMARK    1  A    between atoms: C_2  and  O_3 
REMARK    2  A    between atoms: O_3  and  C_4 
REMARK    3  A    between atoms: C_4  and  C_6 
REMARK    4  A    between atoms: C_7  and  C_22 
REMARK    5  A    between atoms: C_22  and  S_23 
REMARK    6  A    between atoms: S_23  and  C_24 
ROOT
HETATM    1  C   UNK     0      -4.232   3.513   0.000  0.00  0.00     0.035 C 
HETATM    2  C   UNK     0      -2.726   3.192   0.000  0.00  0.00     0.151 C 
ENDROOT
BRANCH   2   3
HETATM    3  O   UNK     0      -2.250   1.728   0.000  0.00  0.00    -0.309 OA
BRANCH   3   4
HETATM    4  C   UNK     0      -0.744   1.408   0.000  0.00  0.00     0.229 C 
HETATM    5  O   UNK     0       0.287   2.552   0.000  0.00  0.00    -0.163 OA
BRANCH   4   6
HETATM    6  C   UNK     0      -0.268  -0.057   0.000  0.00  0.00     0.062 A 
HETATM    7  C   UNK     0      -1.173  -1.303   0.000  0.00  0.00     0.052 A 
HETATM    8  N   UNK     0      -0.268  -2.549   0.000  0.00  0.00    -0.331 N 
HETATM    9  C   UNK     0       1.197  -2.073   0.000  0.00  0.00     0.042 A 
HETATM   10  C   UNK     0      -0.744  -4.013   0.000  0.00  0.00     0.130 C 
HETATM   11  C   UNK     0       1.197  -0.533   0.000  0.00  0.00     0.017 A 
HETATM   12  C   UNK     0       2.530  -2.843   0.000  0.00  0.00     0.079 A 
HETATM   13  C   UNK     0       2.530   0.237   0.000  0.00  0.00     0.024 A 
HETATM   14  C   UNK     0       3.864  -0.533   0.000  0.00  0.00     0.097 A 
HETATM   15  C   UNK     0       2.530   1.777   0.000  0.00  0.00     0.128 A 
HETATM   16  C   UNK     0       3.864  -2.073   0.000  0.00  0.00     0.040 A 
HETATM   17  O   UNK     0       5.198   0.237   0.000  0.00  0.00    -0.308 OA
HETATM   18 Br   UNK     0       5.198  -2.843   0.000  0.00  0.00    -0.051 Br
HETATM   19  C   UNK     0       5.198   1.777   0.000  0.00  0.00     0.253 A 
HETATM   20  N   UNK     0       3.864   2.547   0.000  0.00  0.00    -0.338 N 
HETATM   21  C   UNK     0       3.864   4.087   0.000  0.00  0.00     0.123 C 
BRANCH   7  22
HETATM   22  C   UNK     0      -2.713  -1.303   0.000  0.00  0.00     0.101 C 
BRANCH  22  23
HETATM   23  S   UNK     0      -3.483  -2.637   0.000  0.00  0.00    -0.135 SA
BRANCH  23  24
HETATM   24  C   UNK     0      -5.023  -2.637   0.000  0.00  0.00     0.048 A 
HETATM   25  C   UNK     0      -5.793  -3.970   0.000  0.00  0.00     0.011 A 
HETATM   26  C   UNK     0      -7.333  -3.970   0.000  0.00  0.00     0.001 A 
HETATM   27  C   UNK     0      -8.103  -2.637   0.000  0.00  0.00     0.000 A 
HETATM   28  C   UNK     0      -7.333  -1.303   0.000  0.00  0.00     0.001 A 
HETATM   29  C   UNK     0      -5.793  -1.303   0.000  0.00  0.00     0.011 A 
ENDBRANCH  23  24
ENDBRANCH  22  23
ENDBRANCH   7  22
ENDBRANCH   4   6
ENDBRANCH   3   4
ENDBRANCH   2   3
TORSDOF 6
