MODEL 1
REMARK VINA RESULT:      -6.1      0.000      0.000
REMARK  6 active torsions:
REMARK  status: ('A' for Active; 'I' for Inactive)
REMARK    1  A    between atoms: C_2  and  O_3 
REMARK    2  A    between atoms: O_3  and  C_4 
REMARK    3  A    between atoms: C_4  and  C_6 
REMARK    4  A    between atoms: C_7  and  C_22 
REMARK    5  A    between atoms: C_22  and  S_23 
REMARK    6  A    between atoms: S_23  and  C_24 
ROOT
HETATM    1  C   UNK     0      49.314  38.013  43.501  0.00  0.00     0.035 C 
HETATM    2  C   UNK     0      48.630  37.471  42.232  0.00  0.00     0.151 C 
ENDROOT
BRANCH   2   3
HETATM    3  O   UNK     0      48.047  38.447  41.193  0.00  0.00    -0.309 OA
BRANCH   3   4
HETATM    4  C   UNK     0      47.841  39.928  41.559  0.00  0.00     0.229 C 
HETATM    5  O   UNK     0      46.932  40.310  42.742  0.00  0.00    -0.163 OA
BRANCH   4   6
HETATM    6  C   UNK     0      48.545  41.028  40.742  0.00  0.00     0.062 A 
HETATM    7  C   UNK     0      50.053  41.336  40.749  0.00  0.00     0.052 A 
HETATM    8  N   UNK     0      50.304  42.512  39.786  0.00  0.00    -0.331 N 
HETATM    9  C   UNK     0      48.949  42.930  39.184  0.00  0.00     0.042 A 
HETATM   10  C   UNK     0      51.668  43.155  39.479  0.00  0.00     0.130 C 
HETATM   11  C   UNK     0      47.862  42.013  39.775  0.00  0.00     0.017 A 
HETATM   12  C   UNK     0      48.566  44.027  38.174  0.00  0.00     0.079 A 
HETATM   13  C   UNK     0      46.392  42.193  39.356  0.00  0.00     0.024 A 
HETATM   14  C   UNK     0      46.008  43.291  38.345  0.00  0.00     0.097 A 
HETATM   15  C   UNK     0      45.305  41.277  39.947  0.00  0.00     0.128 A 
HETATM   16  C   UNK     0      47.095  44.208  37.754  0.00  0.00     0.040 A 
HETATM   17  O   UNK     0      44.537  43.471  37.926  0.00  0.00    -0.308 OA
HETATM   18 Br   UNK     0      46.711  45.305  36.744  0.00  0.00    -0.051 Br
HETATM   19  C   UNK     0      43.450  42.555  38.517  0.00  0.00     0.253 A 
HETATM   20  N   UNK     0      43.834  41.457  39.527  0.00  0.00    -0.338 N 
HETATM   21  C   UNK     0      42.746  40.540  40.118  0.00  0.00     0.123 C 
BRANCH   7  22
HETATM   22  C   UNK     0      51.124  40.599  41.574  0.00  0.00     0.101 C 
BRANCH  22  23
HETATM   23  S   UNK     0      52.141  39.680  40.871  0.00  0.00    -0.135 SA
BRANCH  23  24
HETATM   24  C   UNK     0      51.687  38.324  40.300  0.00  0.00     0.048 A 
HETATM   25  C   UNK     0      52.220  37.015  40.909  0.00  0.00     0.011 A 
HETATM   26  C   UNK     0      51.766  35.658  40.338  0.00  0.00     0.001 A 
HETATM   27  C   UNK     0      50.778  35.611  39.158  0.00  0.00     0.000 A 
HETATM   28  C   UNK     0      50.244  36.921  38.549  0.00  0.00     0.001 A 
HETATM   29  C   UNK     0      50.698  38.277  39.120  0.00  0.00     0.011 A 
ENDBRANCH  23  24
ENDBRANCH  22  23
ENDBRANCH   7  22
ENDBRANCH   4   6
ENDBRANCH   3   4
ENDBRANCH   2   3
TORSDOF 6
ENDMDL
MODEL 2
REMARK VINA RESULT:      -5.9      2.702      4.564
REMARK  6 active torsions:
REMARK  status: ('A' for Active; 'I' for Inactive)
REMARK    1  A    between atoms: C_2  and  O_3 
REMARK    2  A    between atoms: O_3  and  C_4 
REMARK    3  A    between atoms: C_4  and  C_6 
REMARK    4  A    between atoms: C_7  and  C_22 
REMARK    5  A    between atoms: C_22  and  S_23 
REMARK    6  A    between atoms: S_23  and  C_24 
ROOT
HETATM    1  C   UNK     0      50.350  38.474  37.643  0.00  0.00     0.035 C 
HETATM    2  C   UNK     0      49.939  39.464  38.748  0.00  0.00     0.151 C 
ENDROOT
BRANCH   2   3
HETATM    3  O   UNK     0      48.452  39.649  39.102  0.00  0.00    -0.309 OA
BRANCH   3   4
HETATM    4  C   UNK     0      48.055  40.335  40.422  0.00  0.00     0.229 C 
HETATM    5  O   UNK     0      48.975  41.402  41.044  0.00  0.00    -0.163 OA
BRANCH   4   6
HETATM    6  C   UNK     0      46.737  39.954  41.122  0.00  0.00     0.062 A 
HETATM    7  C   UNK     0      46.588  38.978  42.304  0.00  0.00     0.052 A 
HETATM    8  N   UNK     0      45.096  38.902  42.675  0.00  0.00    -0.331 N 
HETATM    9  C   UNK     0      44.321  39.832  41.722  0.00  0.00     0.042 A 
HETATM   10  C   UNK     0      44.485  38.047  43.801  0.00  0.00     0.130 C 
HETATM   11  C   UNK     0      45.335  40.481  40.762  0.00  0.00     0.017 A 
HETATM   12  C   UNK     0      42.824  40.170  41.605  0.00  0.00     0.079 A 
HETATM   13  C   UNK     0      44.852  41.470  39.685  0.00  0.00     0.024 A 
HETATM   14  C   UNK     0      43.354  41.808  39.567  0.00  0.00     0.097 A 
HETATM   15  C   UNK     0      45.866  42.119  38.725  0.00  0.00     0.128 A 
HETATM   16  C   UNK     0      42.340  41.158  40.527  0.00  0.00     0.040 A 
HETATM   17  O   UNK     0      42.870  42.797  38.490  0.00  0.00    -0.308 OA
HETATM   18 Br   UNK     0      40.842  41.497  40.409  0.00  0.00    -0.051 Br
HETATM   19  C   UNK     0      43.884  43.447  37.530  0.00  0.00     0.253 A 
HETATM   20  N   UNK     0      45.382  43.108  37.648  0.00  0.00    -0.338 N 
HETATM   21  C   UNK     0      46.396  43.758  36.688  0.00  0.00     0.123 C 
BRANCH   7  22
HETATM   22  C   UNK     0      47.732  38.212  42.994  0.00  0.00     0.101 C 
BRANCH  22  23
HETATM   23  S   UNK     0      48.488  37.106  42.233  0.00  0.00    -0.135 SA
BRANCH  23  24
HETATM   24  C   UNK     0      49.940  37.340  41.776  0.00  0.00     0.048 A 
HETATM   25  C   UNK     0      50.735  38.539  42.322  0.00  0.00     0.011 A 
HETATM   26  C   UNK     0      52.187  38.774  41.865  0.00  0.00     0.001 A 
HETATM   27  C   UNK     0      52.843  37.809  40.861  0.00  0.00     0.000 A 
HETATM   28  C   UNK     0      52.048  36.609  40.314  0.00  0.00     0.001 A 
HETATM   29  C   UNK     0      50.596  36.375  40.771  0.00  0.00     0.011 A 
ENDBRANCH  23  24
ENDBRANCH  22  23
ENDBRANCH   7  22
ENDBRANCH   4   6
ENDBRANCH   3   4
ENDBRANCH   2   3
TORSDOF 6
ENDMDL
MODEL 3
REMARK VINA RESULT:      -5.8      2.434      3.368
REMARK  6 active torsions:
REMARK  status: ('A' for Active; 'I' for Inactive)
REMARK    1  A    between atoms: C_2  and  O_3 
REMARK    2  A    between atoms: O_3  and  C_4 
REMARK    3  A    between atoms: C_4  and  C_6 
REMARK    4  A    between atoms: C_7  and  C_22 
REMARK    5  A    between atoms: C_22  and  S_23 
REMARK    6  A    between atoms: S_23  and  C_24 
ROOT
HETATM    1  C   UNK     0      47.517  36.357  43.249  0.00  0.00     0.035 C 
HETATM    2  C   UNK     0      48.671  37.011  42.466  0.00  0.00     0.151 C 
ENDROOT
BRANCH   2   3
HETATM    3  O   UNK     0      48.366  37.947  41.282  0.00  0.00    -0.309 OA
BRANCH   3   4
HETATM    4  C   UNK     0      48.374  39.473  41.485  0.00  0.00     0.229 C 
HETATM    5  O   UNK     0      49.061  40.082  42.721  0.00  0.00    -0.163 OA
BRANCH   4   6
HETATM    6  C   UNK     0      47.693  40.391  40.452  0.00  0.00     0.062 A 
HETATM    7  C   UNK     0      48.399  41.158  39.319  0.00  0.00     0.052 A 
HETATM    8  N   UNK     0      47.329  41.944  38.538  0.00  0.00    -0.331 N 
HETATM    9  C   UNK     0      45.962  41.662  39.188  0.00  0.00     0.042 A 
HETATM   10  C   UNK     0      47.582  42.851  37.320  0.00  0.00     0.130 C 
HETATM   11  C   UNK     0      46.186  40.702  40.372  0.00  0.00     0.017 A 
HETATM   12  C   UNK     0      44.542  42.155  38.856  0.00  0.00     0.079 A 
HETATM   13  C   UNK     0      44.991  40.235  41.223  0.00  0.00     0.024 A 
HETATM   14  C   UNK     0      43.570  40.729  40.891  0.00  0.00     0.097 A 
HETATM   15  C   UNK     0      45.216  39.276  42.406  0.00  0.00     0.128 A 
HETATM   16  C   UNK     0      43.346  41.688  39.707  0.00  0.00     0.040 A 
HETATM   17  O   UNK     0      42.374  40.262  41.742  0.00  0.00    -0.308 OA
HETATM   18 Br   UNK     0      41.925  42.182  39.375  0.00  0.00    -0.051 Br
HETATM   19  C   UNK     0      42.599  39.302  42.925  0.00  0.00     0.253 A 
HETATM   20  N   UNK     0      44.020  38.809  43.257  0.00  0.00    -0.338 N 
HETATM   21  C   UNK     0      44.245  37.849  44.440  0.00  0.00     0.123 C 
BRANCH   7  22
HETATM   22  C   UNK     0      49.909  41.143  39.019  0.00  0.00     0.101 C 
BRANCH  22  23
HETATM   23  S   UNK     0      50.520  39.989  38.202  0.00  0.00    -0.135 SA
BRANCH  23  24
HETATM   24  C   UNK     0      50.834  38.644  38.883  0.00  0.00     0.048 A 
HETATM   25  C   UNK     0      51.716  38.608  40.145  0.00  0.00     0.011 A 
HETATM   26  C   UNK     0      52.030  37.263  40.826  0.00  0.00     0.001 A 
HETATM   27  C   UNK     0      51.463  35.955  40.246  0.00  0.00     0.000 A 
HETATM   28  C   UNK     0      50.581  35.991  38.984  0.00  0.00     0.001 A 
HETATM   29  C   UNK     0      50.267  37.336  38.302  0.00  0.00     0.011 A 
ENDBRANCH  23  24
ENDBRANCH  22  23
ENDBRANCH   7  22
ENDBRANCH   4   6
ENDBRANCH   3   4
ENDBRANCH   2   3
TORSDOF 6
ENDMDL
MODEL 4
REMARK VINA RESULT:      -5.7      2.564      4.668
REMARK  6 active torsions:
REMARK  status: ('A' for Active; 'I' for Inactive)
REMARK    1  A    between atoms: C_2  and  O_3 
REMARK    2  A    between atoms: O_3  and  C_4 
REMARK    3  A    between atoms: C_4  and  C_6 
REMARK    4  A    between atoms: C_7  and  C_22 
REMARK    5  A    between atoms: C_22  and  S_23 
REMARK    6  A    between atoms: S_23  and  C_24 
ROOT
HETATM    1  C   UNK     0      51.396  41.916  40.792  0.00  0.00     0.035 C 
HETATM    2  C   UNK     0      49.908  42.073  40.430  0.00  0.00     0.151 C 
ENDROOT
BRANCH   2   3
HETATM    3  O   UNK     0      48.830  41.387  41.289  0.00  0.00    -0.309 OA
BRANCH   3   4
HETATM    4  C   UNK     0      47.983  40.246  40.695  0.00  0.00     0.229 C 
HETATM    5  O   UNK     0      48.494  39.464  39.470  0.00  0.00    -0.163 OA
BRANCH   4   6
HETATM    6  C   UNK     0      46.625  39.886  41.325  0.00  0.00     0.062 A 
HETATM    7  C   UNK     0      46.403  38.937  42.518  0.00  0.00     0.052 A 
HETATM    8  N   UNK     0      44.891  38.877  42.804  0.00  0.00    -0.331 N 
HETATM    9  C   UNK     0      44.178  39.789  41.788  0.00  0.00     0.042 A 
HETATM   10  C   UNK     0      44.212  38.050  43.910  0.00  0.00     0.130 C 
HETATM   11  C   UNK     0      45.249  40.413  40.874  0.00  0.00     0.017 A 
HETATM   12  C   UNK     0      42.692  40.131  41.577  0.00  0.00     0.079 A 
HETATM   13  C   UNK     0      44.835  41.379  39.750  0.00  0.00     0.024 A 
HETATM   14  C   UNK     0      43.348  41.722  39.539  0.00  0.00     0.097 A 
HETATM   15  C   UNK     0      45.906  42.003  38.836  0.00  0.00     0.128 A 
HETATM   16  C   UNK     0      42.277  41.098  40.452  0.00  0.00     0.040 A 
HETATM   17  O   UNK     0      42.933  42.689  38.414  0.00  0.00    -0.308 OA
HETATM   18 Br   UNK     0      40.790  41.441  40.241  0.00  0.00    -0.051 Br
HETATM   19  C   UNK     0      44.004  43.313  37.501  0.00  0.00     0.253 A 
HETATM   20  N   UNK     0      45.491  42.970  37.712  0.00  0.00    -0.338 N 
HETATM   21  C   UNK     0      46.562  43.594  36.798  0.00  0.00     0.123 C 
BRANCH   7  22
HETATM   22  C   UNK     0      47.501  38.181  43.289  0.00  0.00     0.101 C 
BRANCH  22  23
HETATM   23  S   UNK     0      48.201  36.970  42.643  0.00  0.00    -0.135 SA
BRANCH  23  24
HETATM   24  C   UNK     0      49.546  37.156  41.917  0.00  0.00     0.048 A 
HETATM   25  C   UNK     0      49.914  36.243  40.733  0.00  0.00     0.011 A 
HETATM   26  C   UNK     0      51.259  36.429  40.006  0.00  0.00     0.001 A 
HETATM   27  C   UNK     0      52.236  37.527  40.464  0.00  0.00     0.000 A 
HETATM   28  C   UNK     0      51.868  38.440  41.648  0.00  0.00     0.001 A 
HETATM   29  C   UNK     0      50.523  38.255  42.375  0.00  0.00     0.011 A 
ENDBRANCH  23  24
ENDBRANCH  22  23
ENDBRANCH   7  22
ENDBRANCH   4   6
ENDBRANCH   3   4
ENDBRANCH   2   3
TORSDOF 6
ENDMDL
MODEL 5
REMARK VINA RESULT:      -5.6      2.745      4.370
REMARK  6 active torsions:
REMARK  status: ('A' for Active; 'I' for Inactive)
REMARK    1  A    between atoms: C_2  and  O_3 
REMARK    2  A    between atoms: O_3  and  C_4 
REMARK    3  A    between atoms: C_4  and  C_6 
REMARK    4  A    between atoms: C_7  and  C_22 
REMARK    5  A    between atoms: C_22  and  S_23 
REMARK    6  A    between atoms: S_23  and  C_24 
ROOT
HETATM    1  C   UNK     0      49.019  45.342  41.444  0.00  0.00     0.035 C 
HETATM    2  C   UNK     0      49.328  44.149  40.520  0.00  0.00     0.151 C 
ENDROOT
BRANCH   2   3
HETATM    3  O   UNK     0      48.362  43.789  39.377  0.00  0.00    -0.309 OA
BRANCH   3   4
HETATM    4  C   UNK     0      48.168  42.318  38.967  0.00  0.00     0.229 C 
HETATM    5  O   UNK     0      48.212  41.920  37.480  0.00  0.00    -0.163 OA
BRANCH   4   6
HETATM    6  C   UNK     0      47.930  41.243  40.045  0.00  0.00     0.062 A 
HETATM    7  C   UNK     0      49.021  40.462  40.800  0.00  0.00     0.052 A 
HETATM    8  N   UNK     0      48.325  39.497  41.778  0.00  0.00    -0.331 N 
HETATM    9  C   UNK     0      46.803  39.683  41.627  0.00  0.00     0.042 A 
HETATM   10  C   UNK     0      49.026  38.520  42.738  0.00  0.00     0.130 C 
HETATM   11  C   UNK     0      46.559  40.762  40.556  0.00  0.00     0.017 A 
HETATM   12  C   UNK     0      45.609  39.009  42.327  0.00  0.00     0.079 A 
HETATM   13  C   UNK     0      45.121  41.167  40.184  0.00  0.00     0.024 A 
HETATM   14  C   UNK     0      43.926  40.493  40.884  0.00  0.00     0.097 A 
HETATM   15  C   UNK     0      44.878  42.246  39.113  0.00  0.00     0.128 A 
HETATM   16  C   UNK     0      44.170  39.414  41.955  0.00  0.00     0.040 A 
HETATM   17  O   UNK     0      42.487  40.898  40.512  0.00  0.00    -0.308 OA
HETATM   18 Br   UNK     0      42.975  38.740  42.655  0.00  0.00    -0.051 Br
HETATM   19  C   UNK     0      42.244  41.977  39.440  0.00  0.00     0.253 A 
HETATM   20  N   UNK     0      43.439  42.651  38.741  0.00  0.00    -0.338 N 
HETATM   21  C   UNK     0      43.195  43.730  37.669  0.00  0.00     0.123 C 
BRANCH   7  22
HETATM   22  C   UNK     0      50.541  40.617  40.611  0.00  0.00     0.101 C 
BRANCH  22  23
HETATM   23  S   UNK     0      51.280  39.756  39.569  0.00  0.00    -0.135 SA
BRANCH  23  24
HETATM   24  C   UNK     0      51.356  38.228  39.747  0.00  0.00     0.048 A 
HETATM   25  C   UNK     0      50.271  37.326  39.131  0.00  0.00     0.011 A 
HETATM   26  C   UNK     0      50.347  35.798  39.309  0.00  0.00     0.001 A 
HETATM   27  C   UNK     0      51.508  35.173  40.104  0.00  0.00     0.000 A 
HETATM   28  C   UNK     0      52.593  36.075  40.721  0.00  0.00     0.001 A 
HETATM   29  C   UNK     0      52.517  37.603  40.542  0.00  0.00     0.011 A 
ENDBRANCH  23  24
ENDBRANCH  22  23
ENDBRANCH   7  22
ENDBRANCH   4   6
ENDBRANCH   3   4
ENDBRANCH   2   3
TORSDOF 6
ENDMDL
MODEL 6
REMARK VINA RESULT:      -5.5      3.488      6.969
REMARK  6 active torsions:
REMARK  status: ('A' for Active; 'I' for Inactive)
REMARK    1  A    between atoms: C_2  and  O_3 
REMARK    2  A    between atoms: O_3  and  C_4 
REMARK    3  A    between atoms: C_4  and  C_6 
REMARK    4  A    between atoms: C_7  and  C_22 
REMARK    5  A    between atoms: C_22  and  S_23 
REMARK    6  A    between atoms: S_23  and  C_24 
ROOT
HETATM    1  C   UNK     0      53.308  40.639  39.979  0.00  0.00     0.035 C 
HETATM    2  C   UNK     0      52.579  41.986  40.141  0.00  0.00     0.151 C 
ENDROOT
BRANCH   2   3
HETATM    3  O   UNK     0      51.513  42.413  39.115  0.00  0.00    -0.309 OA
BRANCH   3   4
HETATM    4  C   UNK     0      50.026  42.117  39.381  0.00  0.00     0.229 C 
HETATM    5  O   UNK     0      49.065  41.880  38.201  0.00  0.00    -0.163 OA
BRANCH   4   6
HETATM    6  C   UNK     0      49.499  42.057  40.827  0.00  0.00     0.062 A 
HETATM    7  C   UNK     0      49.137  43.267  41.709  0.00  0.00     0.052 A 
HETATM    8  N   UNK     0      48.656  42.735  43.072  0.00  0.00    -0.331 N 
HETATM    9  C   UNK     0      48.721  41.197  43.032  0.00  0.00     0.042 A 
HETATM   10  C   UNK     0      48.192  43.591  44.264  0.00  0.00     0.130 C 
HETATM   11  C   UNK     0      49.242  40.778  41.645  0.00  0.00     0.017 A 
HETATM   12  C   UNK     0      48.373  40.124  44.080  0.00  0.00     0.079 A 
HETATM   13  C   UNK     0      49.415  39.286  41.306  0.00  0.00     0.024 A 
HETATM   14  C   UNK     0      49.067  38.213  42.354  0.00  0.00     0.097 A 
HETATM   15  C   UNK     0      49.936  38.867  39.919  0.00  0.00     0.128 A 
HETATM   16  C   UNK     0      48.546  38.631  43.741  0.00  0.00     0.040 A 
HETATM   17  O   UNK     0      49.240  36.720  42.015  0.00  0.00    -0.308 OA
HETATM   18 Br   UNK     0      48.198  37.558  44.790  0.00  0.00    -0.051 Br
HETATM   19  C   UNK     0      49.761  36.301  40.628  0.00  0.00     0.253 A 
HETATM   20  N   UNK     0      50.109  37.375  39.579  0.00  0.00    -0.338 N 
HETATM   21  C   UNK     0      50.630  36.956  38.192  0.00  0.00     0.123 C 
BRANCH   7  22
HETATM   22  C   UNK     0      49.238  44.748  41.300  0.00  0.00     0.101 C 
BRANCH  22  23
HETATM   23  S   UNK     0      48.047  45.439  40.609  0.00  0.00    -0.135 SA
BRANCH  23  24
HETATM   24  C   UNK     0      47.394  44.793  39.373  0.00  0.00     0.048 A 
HETATM   25  C   UNK     0      46.266  43.761  39.549  0.00  0.00     0.011 A 
HETATM   26  C   UNK     0      45.613  43.115  38.312  0.00  0.00     0.001 A 
HETATM   27  C   UNK     0      46.087  43.503  36.900  0.00  0.00     0.000 A 
HETATM   28  C   UNK     0      47.216  44.536  36.724  0.00  0.00     0.001 A 
HETATM   29  C   UNK     0      47.869  45.181  37.960  0.00  0.00     0.011 A 
ENDBRANCH  23  24
ENDBRANCH  22  23
ENDBRANCH   7  22
ENDBRANCH   4   6
ENDBRANCH   3   4
ENDBRANCH   2   3
TORSDOF 6
ENDMDL
MODEL 7
REMARK VINA RESULT:      -5.4      2.434      4.004
REMARK  6 active torsions:
REMARK  status: ('A' for Active; 'I' for Inactive)
REMARK    1  A    between atoms: C_2  and  O_3 
REMARK    2  A    between atoms: O_3  and  C_4 
REMARK    3  A    between atoms: C_4  and  C_6 
REMARK    4  A    between atoms: C_7  and  C_22 
REMARK    5  A    between atoms: C_22  and  S_23 
REMARK    6  A    between atoms: S_23  and  C_24 
ROOT
HETATM    1  C   UNK     0      46.152  42.787  43.635  0.00  0.00     0.035 C 
HETATM    2  C   UNK     0      45.443  41.511  44.127  0.00  0.00     0.151 C 
ENDROOT
BRANCH   2   3
HETATM    3  O   UNK     0      46.092  40.133  43.902  0.00  0.00    -0.309 OA
BRANCH   3   4
HETATM    4  C   UNK     0      45.979  39.445  42.529  0.00  0.00     0.229 C 
HETATM    5  O   UNK     0      44.933  38.336  42.307  0.00  0.00    -0.163 OA
BRANCH   4   6
HETATM    6  C   UNK     0      46.913  39.864  41.378  0.00  0.00     0.062 A 
HETATM    7  C   UNK     0      48.369  39.404  41.180  0.00  0.00     0.052 A 
HETATM    8  N   UNK     0      48.910  40.073  39.903  0.00  0.00    -0.331 N 
HETATM    9  C   UNK     0      47.788  40.947  39.312  0.00  0.00     0.042 A 
HETATM   10  C   UNK     0      50.324  39.898  39.320  0.00  0.00     0.130 C 
HETATM   11  C   UNK     0      46.554  40.818  40.223  0.00  0.00     0.017 A 
HETATM   12  C   UNK     0      47.732  41.843  38.061  0.00  0.00     0.079 A 
HETATM   13  C   UNK     0      45.263  41.585  39.885  0.00  0.00     0.024 A 
HETATM   14  C   UNK     0      45.206  42.482  38.634  0.00  0.00     0.097 A 
HETATM   15  C   UNK     0      44.029  41.456  40.796  0.00  0.00     0.128 A 
HETATM   16  C   UNK     0      46.441  42.611  37.722  0.00  0.00     0.040 A 
HETATM   17  O   UNK     0      43.915  43.250  38.294  0.00  0.00    -0.308 OA
HETATM   18 Br   UNK     0      46.384  43.508  36.471  0.00  0.00    -0.051 Br
HETATM   19  C   UNK     0      42.680  43.121  39.206  0.00  0.00     0.253 A 
HETATM   20  N   UNK     0      42.737  42.224  40.457  0.00  0.00    -0.338 N 
HETATM   21  C   UNK     0      41.503  42.096  41.368  0.00  0.00     0.123 C 
BRANCH   7  22
HETATM   22  C   UNK     0      49.147  38.443  42.098  0.00  0.00     0.101 C 
BRANCH  22  23
HETATM   23  S   UNK     0      48.711  36.970  42.218  0.00  0.00    -0.135 SA
BRANCH  23  24
HETATM   24  C   UNK     0      47.835  36.521  43.403  0.00  0.00     0.048 A 
HETATM   25  C   UNK     0      47.995  37.194  44.778  0.00  0.00     0.011 A 
HETATM   26  C   UNK     0      47.119  36.745  45.962  0.00  0.00     0.001 A 
HETATM   27  C   UNK     0      46.083  35.623  45.771  0.00  0.00     0.000 A 
HETATM   28  C   UNK     0      45.922  34.949  44.395  0.00  0.00     0.001 A 
HETATM   29  C   UNK     0      46.798  35.399  43.211  0.00  0.00     0.011 A 
ENDBRANCH  23  24
ENDBRANCH  22  23
ENDBRANCH   7  22
ENDBRANCH   4   6
ENDBRANCH   3   4
ENDBRANCH   2   3
TORSDOF 6
ENDMDL
MODEL 8
REMARK VINA RESULT:      -5.4      1.763      2.479
REMARK  6 active torsions:
REMARK  status: ('A' for Active; 'I' for Inactive)
REMARK    1  A    between atoms: C_2  and  O_3 
REMARK    2  A    between atoms: O_3  and  C_4 
REMARK    3  A    between atoms: C_4  and  C_6 
REMARK    4  A    between atoms: C_7  and  C_22 
REMARK    5  A    between atoms: C_22  and  S_23 
REMARK    6  A    between atoms: S_23  and  C_24 
ROOT
HETATM    1  C   UNK     0      50.662  40.011  45.490  0.00  0.00     0.035 C 
HETATM    2  C   UNK     0      49.692  39.011  44.833  0.00  0.00     0.151 C 
ENDROOT
BRANCH   2   3
HETATM    3  O   UNK     0      48.441  39.523  44.095  0.00  0.00    -0.309 OA
BRANCH   3   4
HETATM    4  C   UNK     0      48.171  39.086  42.644  0.00  0.00     0.229 C 
HETATM    5  O   UNK     0      47.789  37.626  42.336  0.00  0.00    -0.163 OA
BRANCH   4   6
HETATM    6  C   UNK     0      48.283  40.110  41.498  0.00  0.00     0.062 A 
HETATM    7  C   UNK     0      49.590  40.696  40.931  0.00  0.00     0.052 A 
HETATM    8  N   UNK     0      49.222  41.675  39.801  0.00  0.00    -0.331 N 
HETATM    9  C   UNK     0      47.687  41.695  39.670  0.00  0.00     0.042 A 
HETATM   10  C   UNK     0      50.214  42.491  38.953  0.00  0.00     0.130 C 
HETATM   11  C   UNK     0      47.107  40.728  40.718  0.00  0.00     0.017 A 
HETATM   12  C   UNK     0      46.744  42.469  38.731  0.00  0.00     0.079 A 
HETATM   13  C   UNK     0      45.584  40.534  40.828  0.00  0.00     0.024 A 
HETATM   14  C   UNK     0      44.640  41.308  39.888  0.00  0.00     0.097 A 
HETATM   15  C   UNK     0      45.003  39.567  41.876  0.00  0.00     0.128 A 
HETATM   16  C   UNK     0      45.220  42.276  38.840  0.00  0.00     0.040 A 
HETATM   17  O   UNK     0      43.116  41.115  39.998  0.00  0.00    -0.308 OA
HETATM   18 Br   UNK     0      44.276  43.050  37.901  0.00  0.00    -0.051 Br
HETATM   19  C   UNK     0      42.535  40.148  41.046  0.00  0.00     0.253 A 
HETATM   20  N   UNK     0      43.479  39.374  41.986  0.00  0.00    -0.338 N 
HETATM   21  C   UNK     0      42.899  38.407  43.034  0.00  0.00     0.123 C 
BRANCH   7  22
HETATM   22  C   UNK     0      51.014  40.360  41.411  0.00  0.00     0.101 C 
BRANCH  22  23
HETATM   23  S   UNK     0      51.950  39.523  40.518  0.00  0.00    -0.135 SA
BRANCH  23  24
HETATM   24  C   UNK     0      51.604  38.055  40.205  0.00  0.00     0.048 A 
HETATM   25  C   UNK     0      50.355  37.719  39.372  0.00  0.00     0.011 A 
HETATM   26  C   UNK     0      50.009  36.251  39.058  0.00  0.00     0.001 A 
HETATM   27  C   UNK     0      50.914  35.119  39.579  0.00  0.00     0.000 A 
HETATM   28  C   UNK     0      52.165  35.455  40.413  0.00  0.00     0.001 A 
HETATM   29  C   UNK     0      52.510  36.923  40.726  0.00  0.00     0.011 A 
ENDBRANCH  23  24
ENDBRANCH  22  23
ENDBRANCH   7  22
ENDBRANCH   4   6
ENDBRANCH   3   4
ENDBRANCH   2   3
TORSDOF 6
ENDMDL
MODEL 9
REMARK VINA RESULT:      -5.0      2.748      4.392
REMARK  6 active torsions:
REMARK  status: ('A' for Active; 'I' for Inactive)
REMARK    1  A    between atoms: C_2  and  O_3 
REMARK    2  A    between atoms: O_3  and  C_4 
REMARK    3  A    between atoms: C_4  and  C_6 
REMARK    4  A    between atoms: C_7  and  C_22 
REMARK    5  A    between atoms: C_22  and  S_23 
REMARK    6  A    between atoms: S_23  and  C_24 
ROOT
HETATM    1  C   UNK     0      48.941  43.272  43.115  0.00  0.00     0.035 C 
HETATM    2  C   UNK     0      49.576  43.400  41.718  0.00  0.00     0.151 C 
ENDROOT
BRANCH   2   3
HETATM    3  O   UNK     0      48.681  43.574  40.478  0.00  0.00    -0.309 OA
BRANCH   3   4
HETATM    4  C   UNK     0      48.178  42.336  39.711  0.00  0.00     0.229 C 
HETATM    5  O   UNK     0      48.801  41.966  38.353  0.00  0.00    -0.163 OA
BRANCH   4   6
HETATM    6  C   UNK     0      47.052  41.469  40.304  0.00  0.00     0.062 A 
HETATM    7  C   UNK     0      47.233  40.303  41.294  0.00  0.00     0.052 A 
HETATM    8  N   UNK     0      45.840  39.728  41.613  0.00  0.00    -0.331 N 
HETATM    9  C   UNK     0      44.798  40.539  40.819  0.00  0.00     0.042 A 
HETATM   10  C   UNK     0      45.542  38.550  42.558  0.00  0.00     0.130 C 
HETATM   11  C   UNK     0      45.547  41.615  40.011  0.00  0.00     0.017 A 
HETATM   12  C   UNK     0      43.265  40.437  40.729  0.00  0.00     0.079 A 
HETATM   13  C   UNK     0      44.762  42.588  39.112  0.00  0.00     0.024 A 
HETATM   14  C   UNK     0      43.228  42.486  39.022  0.00  0.00     0.097 A 
HETATM   15  C   UNK     0      45.511  43.663  38.304  0.00  0.00     0.128 A 
HETATM   16  C   UNK     0      42.479  41.410  39.830  0.00  0.00     0.040 A 
HETATM   17  O   UNK     0      42.443  43.459  38.123  0.00  0.00    -0.308 OA
HETATM   18 Br   UNK     0      40.945  41.308  39.740  0.00  0.00    -0.051 Br
HETATM   19  C   UNK     0      43.192  44.535  37.314  0.00  0.00     0.253 A 
HETATM   20  N   UNK     0      44.726  44.637  37.405  0.00  0.00    -0.338 N 
HETATM   21  C   UNK     0      45.475  45.712  36.596  0.00  0.00     0.123 C 
BRANCH   7  22
HETATM   22  C   UNK     0      48.572  39.800  41.865  0.00  0.00     0.101 C 
BRANCH  22  23
HETATM   23  S   UNK     0      48.895  38.294  41.856  0.00  0.00    -0.135 SA
BRANCH  23  24
HETATM   24  C   UNK     0      50.315  37.814  41.502  0.00  0.00     0.048 A 
HETATM   25  C   UNK     0      51.541  38.606  41.992  0.00  0.00     0.011 A 
HETATM   26  C   UNK     0      52.960  38.125  41.638  0.00  0.00     0.001 A 
HETATM   27  C   UNK     0      53.154  36.853  40.793  0.00  0.00     0.000 A 
HETATM   28  C   UNK     0      51.928  36.060  40.302  0.00  0.00     0.001 A 
HETATM   29  C   UNK     0      50.508  36.541  40.657  0.00  0.00     0.011 A 
ENDBRANCH  23  24
ENDBRANCH  22  23
ENDBRANCH   7  22
ENDBRANCH   4   6
ENDBRANCH   3   4
ENDBRANCH   2   3
TORSDOF 6
ENDMDL
